Version 4
SHEET 1 880 680
WIRE 192 0 160 0
WIRE 304 0 272 0
WIRE 48 112 -16 112
WIRE 160 112 160 0
WIRE 160 112 128 112
WIRE 304 144 304 0
WIRE 368 144 304 144
WIRE 368 176 368 144
WIRE -16 192 -16 112
WIRE 160 224 160 160
WIRE 368 336 368 256
WIRE -16 352 -16 272
FLAG 368 336 0
FLAG 160 224 0
FLAG -16 352 0
SYMBOL opamp 192 144 R0
SYMATTR InstName X1
SYMBOL res 352 160 R0
SYMATTR InstName R1
SYMATTR Value 1k
SYMBOL voltage -16 176 R0
WINDOW 123 0 0 Left 0
WINDOW 39 0 0 Left 0
SYMATTR InstName V1
SYMATTR Value SINE(0 1 1MEGHz)
SYMBOL res 144 96 R90
WINDOW 0 0 56 VBottom 2
WINDOW 3 32 56 VTop 2
SYMATTR InstName R2
SYMATTR Value 500
SYMBOL res 288 -16 R90
WINDOW 0 0 56 VBottom 2
WINDOW 3 32 56 VTop 2
SYMATTR InstName R3
SYMATTR Value 500
TEXT -50 376 Left 2 !.tran 0 5u 0 10n
