Version 4
SHEET 1 880 732
WIRE 368 64 368 16
WIRE 464 64 368 64
WIRE 368 80 368 64
WIRE 320 96 272 96
WIRE 464 128 464 64
WIRE 464 128 368 128
WIRE 0 224 0 144
WIRE -288 240 -288 192
WIRE -128 240 -128 192
WIRE 368 256 368 176
WIRE 624 256 368 256
WIRE 672 256 624 256
WIRE 368 272 368 256
WIRE 480 320 368 320
WIRE 624 336 624 256
WIRE 320 352 256 352
WIRE -288 384 -288 320
WIRE -128 384 -128 320
WIRE 0 384 0 304
WIRE 368 416 368 368
WIRE 624 464 624 400
FLAG -128 384 0
FLAG -288 384 0
FLAG -288 192 vdd
FLAG -128 192 vg
FLAG 256 352 vg
IOPIN 256 352 In
FLAG 672 256 vout
IOPIN 672 256 In
FLAG 624 464 0
FLAG 368 16 vdd
FLAG 0 384 0
FLAG 0 144 vb
FLAG 272 96 vb
FLAG 480 320 0
FLAG 368 416 0
SYMBOL nmos4 320 272 R0
WINDOW 123 55 116 Left 2
SYMATTR Value2 l=0.36u w=17.82u
SYMATTR InstName M1
SYMATTR Value nch
SYMBOL voltage -128 224 R0
WINDOW 3 -41 -81 VRight 2
WINDOW 123 24 44 Left 2
WINDOW 39 0 0 Left 0
SYMATTR Value SINE(0.62 10m 100meg)
SYMATTR Value2 AC 1
SYMATTR InstName vgs
SYMBOL voltage -288 224 R0
WINDOW 123 0 0 Left 0
WINDOW 39 0 0 Left 0
SYMATTR InstName vdd
SYMATTR Value 1.8
SYMBOL cap 608 336 R0
SYMATTR InstName C1
SYMATTR Value 0.27p
SYMBOL pmos4 320 176 M180
WINDOW 123 120 23 Left 2
SYMATTR Value2 l=0.36u w=34.74u
SYMATTR InstName M2
SYMATTR Value pch
SYMBOL voltage 0 208 R0
WINDOW 123 0 0 Left 0
WINDOW 39 0 0 Left 0
SYMATTR InstName Vb
SYMATTR Value 1.14
TEXT -464 -24 Left 2 !.include CMOS180.txt
TEXT -464 24 Left 2 !.op
TEXT -464 0 Left 2 !;.tf V(vout) vgs
TEXT -464 48 Left 2 !;.tran 100n
TEXT -240 -72 Left 2 ;COMMON SOURCE AMPLIFIER  ( NMOS + CURRENT SOURCE LOAD )
TEXT -464 72 Left 2 !.ac dec 10 10k 40G
TEXT -464 104 Left 2 !;dc vb 0 1.8 1m
