Version 4
SHEET 1 880 680
WIRE 48 48 48 32
WIRE 48 48 16 48
WIRE 208 48 48 48
WIRE 384 80 352 80
WIRE 400 80 384 80
WIRE 208 96 144 96
WIRE 16 160 16 48
WIRE 144 240 144 96
WIRE 192 240 144 240
WIRE 384 240 384 80
WIRE 384 240 272 240
WIRE 144 256 144 240
WIRE 16 288 16 240
WIRE 144 432 144 336
FLAG 16 288 0
FLAG 400 80 vout
IOPIN 400 80 Out
FLAG 144 432 0
FLAG 48 32 vin
SYMBOL voltage 16 144 R0
WINDOW 3 -65 -12 VRight 2
WINDOW 123 0 0 Left 0
WINDOW 39 0 0 Left 0
SYMATTR Value SINE(0 1 1K)
SYMATTR InstName V1
SYMBOL res 128 240 R0
SYMATTR InstName Rg
SYMATTR Value 1k
SYMBOL res 288 224 R90
WINDOW 0 0 56 VBottom 2
WINDOW 3 32 56 VTop 2
SYMATTR InstName R1
SYMATTR Value 9k
SYMBOL opamp 240 80 R0
SYMATTR InstName X1
TEXT -104 32 Left 2 !.tran 3m
TEXT 32 -24 Left 2 ;NON INVERTING AMPLIFIER
