Version 4
SHEET 1 880 680
WIRE 208 112 208 64
WIRE -128 144 -128 80
WIRE -16 144 -16 80
WIRE 304 160 208 160
WIRE 160 192 112 192
WIRE 208 224 208 208
WIRE 304 224 304 160
WIRE 304 224 208 224
WIRE -128 256 -128 224
WIRE -16 256 -16 224
WIRE 208 256 208 224
FLAG 208 256 0
FLAG -128 256 0
FLAG -16 256 0
FLAG -128 80 vgs
FLAG -16 80 vdd
FLAG 208 64 vdd
FLAG 112 192 vgs
SYMBOL nmos4 160 112 R0
WINDOW 123 56 100 Left 2
SYMATTR Value2 l=0.36u w={wn}
SYMATTR InstName M1
SYMATTR Value nch
SYMBOL voltage -16 128 R0
WINDOW 123 0 0 Left 0
WINDOW 39 0 0 Left 0
SYMATTR InstName vdd
SYMATTR Value 0.45
SYMBOL voltage -128 128 R0
WINDOW 123 0 0 Left 0
WINDOW 39 0 0 Left 0
SYMATTR InstName vgs
SYMATTR Value 0.74
TEXT -424 88 Left 2 !.include CMOS180.txt
TEXT -512 136 Left 2 !.step param wn 1u 40u 1u\n.param wn=1
TEXT -496 48 Left 2 !.op
