Version 4
SHEET 1 1008 680
WIRE -592 -96 -592 -128
WIRE -80 16 -176 16
WIRE 96 16 96 -32
WIRE 96 16 -80 16
WIRE 320 16 96 16
WIRE 416 16 320 16
WIRE -592 32 -592 -16
WIRE -80 32 -80 16
WIRE 320 32 320 16
WIRE 16 48 -32 48
WIRE 272 48 16 48
WIRE -176 80 -176 16
WIRE -80 80 -176 80
WIRE 416 80 416 16
WIRE 416 80 320 80
WIRE -80 144 -80 128
WIRE 16 144 16 48
WIRE 16 144 -80 144
WIRE 736 176 736 160
WIRE 768 176 736 176
WIRE 736 192 736 176
WIRE -864 208 -864 144
WIRE -656 208 -656 144
WIRE 320 208 320 128
WIRE 544 208 320 208
WIRE 688 208 544 208
WIRE -80 224 -80 144
WIRE 320 224 320 208
WIRE 768 240 768 176
WIRE 768 240 736 240
WIRE -80 272 -192 272
WIRE 432 272 320 272
WIRE -1152 288 -1152 256
WIRE 32 304 -32 304
WIRE 272 304 208 304
WIRE 544 304 544 272
WIRE 608 304 544 304
WIRE 736 304 736 288
WIRE 736 304 688 304
WIRE 736 336 736 304
WIRE 864 336 736 336
WIRE 896 336 864 336
WIRE -864 352 -864 288
WIRE -768 352 -864 352
WIRE -656 352 -656 288
WIRE -656 352 -768 352
WIRE 736 352 736 336
WIRE 864 352 864 336
WIRE -768 384 -768 352
WIRE -1152 400 -1152 368
WIRE -80 400 -80 320
WIRE 128 400 -80 400
WIRE 320 400 320 320
WIRE 320 400 128 400
WIRE 800 400 736 400
WIRE 688 432 640 432
WIRE 864 432 864 416
WIRE 128 448 128 400
WIRE 736 464 736 448
WIRE 800 464 800 400
WIRE 800 464 736 464
WIRE 736 480 736 464
WIRE 240 496 128 496
WIRE -768 528 -768 464
WIRE 80 528 0 528
WIRE 128 592 128 544
WIRE 240 592 240 496
WIRE 240 592 128 592
WIRE 128 640 128 592
FLAG 96 -32 vdd
FLAG -768 528 0
FLAG -864 144 vin1
IOPIN -864 144 In
FLAG -656 144 vin2
IOPIN -656 144 In
FLAG 32 304 vin1
IOPIN 32 304 In
FLAG 208 304 vin2
IOPIN 208 304 In
FLAG -592 -128 vdd
FLAG -592 32 0
FLAG -192 272 0
FLAG 432 272 0
FLAG 736 160 vdd
FLAG 896 336 vout
IOPIN 896 336 Out
FLAG 736 480 0
FLAG 640 432 vgs
FLAG 864 432 0
FLAG -1152 400 0
FLAG -1152 256 vgs
FLAG 128 640 0
FLAG 0 528 vgs
DATAFLAG 320 160 ""
DATAFLAG 320 160 ""
DATAFLAG -80 144 ""
DATAFLAG -80 144 ""
DATAFLAG 128 400 ""
SYMBOL nmos4 -32 224 M0
WINDOW 123 55 116 Left 2
SYMATTR Value2 l=0.36u w=2.88u
SYMATTR InstName M1
SYMATTR Value nch
SYMBOL pmos4 -32 128 R180
WINDOW 123 120 23 Left 2
SYMATTR Value2 l=0.36u w=2.52u
SYMATTR InstName M2
SYMATTR Value pch
SYMBOL nmos4 272 224 R0
WINDOW 123 55 116 Left 2
SYMATTR Value2 l=0.36u w=2.88u
SYMATTR InstName M3
SYMATTR Value nch
SYMBOL pmos4 272 128 M180
WINDOW 123 120 23 Left 2
SYMATTR Value2 l=0.36u w=2.52u
SYMATTR InstName M4
SYMATTR Value pch
SYMBOL voltage -768 368 R0
WINDOW 123 0 0 Left 0
WINDOW 39 0 0 Left 0
SYMATTR InstName v1
SYMATTR Value 1.188
SYMBOL voltage -864 192 R0
WINDOW 3 -48 -25 VRight 2
WINDOW 123 24 124 Left 2
WINDOW 39 0 0 Left 0
SYMATTR Value SINE(0 10m 100meg)
SYMATTR Value2 AC 1
SYMATTR InstName vin1
SYMBOL voltage -656 304 R180
WINDOW 0 24 96 Left 2
WINDOW 3 -53 -138 VRight 2
WINDOW 123 24 -12 Left 2
WINDOW 39 0 0 Left 0
SYMATTR InstName vin2
SYMATTR Value SINE(0 10m 100meg)
SYMATTR Value2 AC 1
SYMBOL voltage -592 -112 R0
WINDOW 123 0 0 Left 0
WINDOW 39 0 0 Left 0
SYMATTR InstName vdd
SYMATTR Value 1.8
SYMBOL pmos4 688 288 M180
WINDOW 123 56 4 Left 2
SYMATTR Value2 l=0.36u w=45u
SYMATTR InstName M5
SYMATTR Value pch
SYMBOL nmos4 688 352 R0
WINDOW 123 56 100 Left 2
SYMATTR Value2 l=0.36u w=19.8u
SYMATTR InstName M6
SYMATTR Value nch
SYMBOL cap 848 352 R0
SYMATTR InstName C1
SYMATTR Value 20f
SYMBOL voltage -1152 272 R0
WINDOW 123 0 0 Left 0
WINDOW 39 0 0 Left 0
SYMATTR InstName vgs
SYMATTR Value 0.74
SYMBOL cap 528 208 R0
SYMATTR InstName C2
SYMATTR Value 10f
SYMBOL res 704 288 R90
WINDOW 0 0 56 VBottom 2
WINDOW 3 32 56 VTop 2
SYMATTR InstName R1
SYMATTR Value 12k
SYMBOL nmos4 80 448 R0
WINDOW 123 56 100 Left 2
SYMATTR Value2 l=0.36u w=4.5u
SYMATTR InstName M7
TEXT -1032 -88 Left 2 !.include CMOS180.txt
TEXT -1032 -144 Left 2 !.op
TEXT -1032 -112 Left 2 !;tf V(vout) vin1
TEXT -1032 -64 Left 2 !;.tran 100n
TEXT -1032 -24 Left 2 !.ac dec 10 10k 40G
